  Page 1                                    Thu Mar 22 12:51:14 2007

  ******************************************************************
  *                           E P A N E T                          *
  *                   Hydraulic and Water Quality                  *
  *                   Analysis for Pipe Networks                   *
  *                           Version 2.0                          *
  ******************************************************************
  
  Analysis begun Thu Mar 22 12:51:14 2007

  Processing MSX input file net3-nh2cl.msx
  
  
Page 1                                               EPANET-MSX 1.0
  
  ******************************************************************
  *                      E P A N E T  -  M S X                     *
  *                   Multi-Species Water Quality                  *
  *                   Analysis for Pipe  Networks                  *
  *                           Version 1.0                          *
  ******************************************************************
  
  NET3 Chloramine Decay Example

  
  
  
  Average Values          cNH3      cNH2CL
  for Node                MG/L        MG/L
  ----------------  ----------  ----------
  10                    0.0045      2.5613
  15                    0.5263      0.8436
  20                    0.4789      0.9335
  35                    0.3428      1.5122
  40                    0.5450      0.8785
  50                    0.6199      0.4430
  60                    0.0056      2.5574
  601                   0.0475      2.4300
  61                    0.0139      2.5322
  101                   0.2196      1.8923
  103                   0.2667      1.7473
  105                   0.2309      1.8579
  107                   0.2803      1.7084
  109                   0.2886      1.6893
  111                   0.2688      1.7430
  113                   0.3111      1.6145
  115                   0.2709      1.7364
  117                   0.2429      1.8217
  119                   0.2296      1.8613
  120                   0.2437      1.8190
  121                   0.2200      1.8906
  123                   0.1908      1.9947
  125                   0.3783      1.3093
  127                   0.4643      0.9896
  129                   0.5096      0.8446
  131                   0.7324      0.1369
  139                   0.5181      0.8224
  141                   0.5265      0.8133
  143                   0.5110      0.8999
  145                   0.4542      1.1172
  147                   0.3916      1.3666
  149                   0.3755      1.4175
  151                   0.3879      1.3241
  153                   0.4066      1.2372
  157                   0.2398      1.8303
  159                   0.2506      1.7974
  161                   0.2605      1.7674
  163                   0.2652      1.7526
  164                   0.5055      1.0259
  166                   0.7887      0.1632
  167                   0.2825      1.7005
  169                   0.2739      1.7266
  171                   0.2796      1.7091
  173                   0.2838      1.6965
  177                   0.4607      1.1386
  179                   0.4739      1.0973
  181                   0.3402      1.5199
  183                   0.3803      1.3973
  184                   0.3963      1.3516
  185                   0.3922      1.3637
  187                   0.3469      1.5082
  189                   0.3228      1.5794
  191                   0.3327      1.5512
  193                   0.3197      1.5868
  195                   0.2986      1.6518
  197                   0.3328      1.5475
  199                   0.2974      1.6552
  201                   0.3020      1.6415
  203                   0.3059      1.6298
  204                   0.3547      1.4842
  205                   0.4153      1.2976
  206                   0.4287      1.2560
  207                   0.4218      1.2770
  208                   0.4323      1.2453
  209                   0.4394      1.2243
  211                   0.4595      1.1638
  213                   0.4836      1.0914
  215                   0.6110      0.7030
  217                   0.6733      0.5121
  219                   0.7485      0.2823
  225                   0.7491      0.2799
  229                   0.5318      0.9476
  231                   0.7463      0.2907
  237                   0.4944      1.0589
  239                   0.5137      1.0047
  241                   0.5253      0.9697
  243                   0.8391      0.0080
  247                   0.5223      0.9202
  249                   0.5274      0.9590
  251                   0.6095      0.6559
  253                   0.6322      0.4952
  255                   0.6059      0.6015
  257                   0.2630      1.7607
  259                   0.2564      1.7808
  261                   0.2424      1.8229
  263                   0.2407      1.8279
  265                   0.2705      1.7367
  267                   0.3267      1.5675
  269                   0.2954      1.6614
  271                   0.2933      1.6675
  273                   0.3495      1.5003
  275                   0.3774      1.4170
  4                     0.0000      0.0000
  5                     0.0000      0.0000
  1                     0.7727      0.1145
  2                     0.5039      0.0430
  3                     0.6781      0.1574
  
  
  
  Average Values          cNH3      cNH2CL
  for Link                MG/L        MG/L
  ----------------  ----------  ----------
  20                    0.5232      0.7618
  40                    0.6020      0.6920
  50                    0.5914      0.3224
  60                    0.0000      0.0000
  101                   0.2351      1.8613
  103                   0.2374      1.8383
  105                   0.2224      1.8840
  107                   0.2662      1.7485
  109                   0.3128      1.6190
  111                   0.2680      1.7453
  112                   0.2823      1.7021
  113                   0.2993      1.6498
  114                   0.2854      1.6930
  115                   0.2920      1.6770
  116                   0.3213      1.5838
  117                   0.2331      1.8512
  119                   0.2758      1.7219
  120                   0.2450      1.8151
  121                   0.2329      1.8519
  122                   0.2307      1.8578
  123                   0.2221      1.8841
  125                   0.1923      1.9900
  129                   0.3634      1.3675
  131                   0.4032      1.2196
  133                   0.4677      0.9768
  135                   0.4875      0.9151
  137                   0.6440      0.4451
  145                   0.5196      0.8117
  147                   0.5253      0.7954
  149                   0.5138      0.8804
  151                   0.5169      0.8779
  153                   0.4849      0.9992
  155                   0.4194      1.2578
  159                   0.3834      1.3914
  161                   0.3737      1.4146
  163                   0.4303      1.1541
  169                   0.3933      1.2676
  171                   0.3204      1.5556
  173                   0.2323      1.8530
  175                   0.2449      1.8149
  177                   0.2532      1.7895
  179                   0.2605      1.7674
  180                   0.3963      1.3574
  181                   0.6863      0.4727
  183                   0.2705      1.7367
  185                   0.2762      1.7196
  186                   0.3469      1.5082
  187                   0.2751      1.7228
  189                   0.2796      1.7091
  191                   0.2833      1.6979
  193                   0.3402      1.5199
  195                   0.4573      1.1492
  197                   0.4700      1.1106
  199                   0.4053      1.3146
  201                   0.5319      0.9186
  202                   0.3922      1.3637
  203                   0.3841      1.3852
  204                   0.4078      1.3186
  205                   0.3641      1.4545
  207                   0.3355      1.5407
  209                   0.3278      1.5637
  211                   0.2794      1.7098
  213                   0.3523      1.4907
  215                   0.3335      1.5479
  217                   0.3736      1.4255
  219                   0.2974      1.6548
  221                   0.3050      1.6325
  223                   0.3345      1.5436
  225                   0.3055      1.6294
  229                   0.2897      1.6786
  231                   0.2974      1.6552
  233                   0.3020      1.6415
  235                   0.3112      1.6131
  237                   0.4208      1.2804
  238                   0.4221      1.2761
  239                   0.3991      1.3508
  240                   0.4291      1.2548
  241                   0.4342      1.2396
  243                   0.4479      1.1987
  245                   0.4666      1.1430
  247                   0.5487      0.8940
  249                   0.6396      0.6159
  251                   0.7136      0.3877
  257                   0.7141      0.3864
  261                   0.5067      1.0228
  263                   0.6590      0.5575
  269                   0.4718      1.1269
  271                   0.5516      0.8830
  273                   0.5009      1.0404
  275                   0.5191      0.9882
  277                   0.7759      0.2006
  281                   0.5195      0.9507
  283                   0.5209      0.9811
  285                   0.5151      0.9412
  287                   0.5545      0.8094
  289                   0.6157      0.4802
  291                   0.6189      0.5492
  293                   0.6212      0.6031
  295                   0.5710      0.8189
  297                   0.2604      1.7686
  299                   0.2563      1.7810
  301                   0.2500      1.8001
  303                   0.2409      1.8277
  305                   0.2421      1.8239
  307                   0.2389      1.8337
  309                   0.3112      1.6135
  311                   0.3301      1.5572
  313                   0.3031      1.6387
  315                   0.2935      1.6671
  317                   0.3649      1.4541
  319                   0.4267      1.2657
  321                   0.2660      1.7502
  323                   0.3683      1.4417
  325                   0.3018      1.6419
  329                   0.1050      2.2555
  330                   0.0424      2.4456
  333                   0.0475      2.4300
  10                    0.0000      0.0000
  335                   0.0022      2.5680
  
  Analysis ended Thu Mar 22 13:08:55 2007
