  Page 1                                    Thu Oct 05 15:23:57 2006

  ******************************************************************
  *                           E P A N E T                          *
  *                   Hydraulic and Water Quality                  *
  *                   Analysis for Pipe Networks                   *
  *                           Version 2.0                          *
  ******************************************************************
  
  Analysis begun Thu Oct 05 15:23:57 2006

  Processing MSX input file net3-cl2.msx
  
  
Page 1                                               EPANET-MSX 1.0
  
  ******************************************************************
  *                      E P A N E T  -  M S X                     *
  *                   Multi-Species Water Quality                  *
  *                   Analysis for Pipe  Networks                  *
  *                           Version 1.0                          *
  ******************************************************************
  
  Two-Source Chlorine Decay Model

  
  <<< Node 197 >>>
  
  Time             S1          S2         CL2
  hr:min         MG/L        MG/L        MG/L
  -------  ----------  ----------  ----------
   300:00        0.00        1.00        0.19
   301:00        0.00        1.00        0.20
   302:00        0.00        1.00        0.20
   303:00        0.00        1.00        0.10
   304:00        0.00        1.00        0.05
   305:00        0.00        1.00        0.02
   306:00        0.96        0.01        0.53
   307:00        0.94        0.03        0.54
   308:00        0.92        0.06        0.52
   309:00        0.92        0.06        0.51
   310:00        0.92        0.06        0.51
   311:00        0.95        0.03        0.53
   312:00        0.99        0.01        0.67
   313:00        0.96        0.02        0.58
   314:00        0.04        0.96        0.01
   315:00        0.03        0.97        0.20
   316:00        0.00        1.00        0.20
   317:00        0.00        1.00        0.21
   318:00        0.00        1.00        0.20
   319:00        0.00        1.00        0.20
   320:00        0.00        1.00        0.20
   321:00        0.00        1.00        0.20
   322:00        0.00        1.00        0.20
   323:00        0.00        1.00        0.20
   324:00        0.00        1.00        0.19
   325:00        0.00        1.00        0.20
   326:00        0.00        1.00        0.20
   327:00        0.00        1.00        0.10
   328:00        0.00        1.00        0.05
   329:00        0.00        1.00        0.02
   330:00        0.96        0.01        0.53
   331:00        0.94        0.03        0.54
   332:00        0.92        0.06        0.52
   333:00        0.92        0.06        0.51
   334:00        0.92        0.06        0.51
   335:00        0.95        0.03        0.53
   336:00        0.99        0.01        0.67
   337:00        0.97        0.02        0.58
   338:00        0.04        0.96        0.01
   339:00        0.03        0.97        0.20
   340:00        0.00        1.00        0.20
   341:00        0.00        1.00        0.21
   342:00        0.00        1.00        0.20
   343:00        0.00        1.00        0.20
   344:00        0.00        1.00        0.20
   345:00        0.00        1.00        0.20
   346:00        0.00        1.00        0.20
   347:00        0.00        1.00        0.20
   348:00        0.00        1.00        0.19
   349:00        0.00        1.00        0.20
   350:00        0.00        1.00        0.20
   351:00        0.00        1.00        0.10
   352:00        0.00        1.00        0.05
   353:00        0.00        1.00        0.02
   354:00        0.97        0.01        0.53
   355:00        0.95        0.03        0.54
   356:00        0.92        0.06        0.52
   357:00        0.92        0.06        0.51
   358:00        0.92        0.06        0.51
   359:00        0.96        0.03        0.53
   360:00        0.99        0.01        0.67
   361:00        0.97        0.02        0.58
   362:00        0.04        0.96        0.01
   363:00        0.03        0.97        0.20
   364:00        0.00        1.00        0.20
   365:00        0.00        1.00        0.21
   366:00        0.00        1.00        0.20
   367:00        0.00        1.00        0.20
   368:00        0.00        1.00        0.20
   369:00        0.00        1.00        0.20
   370:00        0.00        1.00        0.20
   371:00        0.00        1.00        0.20
   372:00        0.00        1.00        0.19
   373:00        0.00        1.00        0.20
   374:00        0.00        1.00        0.20
   375:00        0.00        1.00        0.10
   376:00        0.00        1.00        0.05
   377:00        0.00        1.00        0.02
   378:00        0.97        0.01        0.53
   379:00        0.95        0.03        0.54
   380:00        0.93        0.06        0.52
  
  Analysis ended Thu Oct 05 15:24:01 2006
